DIM-GROUP
  3 1
PRIMVEC
  8.8489999771 0 0
  0 8.8489999771 0
  0 0 12.6420001984
PRIMCOORD
  96 1
H    4.4244999886    7.7889999771    4.0897784101 
H    3.5244999886    0.4700000000    4.2279772841 
H    5.3244999886    0.4700000000    4.2279772841 
H    4.4244999886    7.7889999771    2.2312217041 
H    3.5244999886    0.4700000000    2.0930228301 
H    5.3244999886    0.4700000000    2.0930228301 
C    4.4244999886    0.0000000000    3.8558100571 
N    4.4244999886    0.0000000000    2.4651900421 
H    0.0000000000   12.2134999656    4.0897784101 
H   -0.9000000000    4.8944999885    4.2279772841 
H    0.9000000000    4.8944999885    4.2279772841 
H    0.0000000000   12.2134999656    2.2312217041 
H   -0.9000000000    4.8944999885    2.0930228301 
H    0.9000000000    4.8944999885    2.0930228301 
C    0.0000000000    4.4244999886    3.8558100571 
N    0.0000000000    4.4244999886    2.4651900421 
H    4.4244999886    7.7889999771   10.4107785093 
H    3.5244999886    0.4700000000   10.5489773833 
H    5.3244999886    0.4700000000   10.5489773833 
H    4.4244999886    7.7889999771    8.5522218033 
H    3.5244999886    0.4700000000    8.4140229293 
H    5.3244999886    0.4700000000    8.4140229293 
C    4.4244999886    0.0000000000   10.1768101563 
N    4.4244999886    0.0000000000    8.7861901413 
H    0.0000000000   12.2134999656   10.4107785093 
H   -0.9000000000    4.8944999885   10.5489773833 
H    0.9000000000    4.8944999885   10.5489773833 
H    0.0000000000   12.2134999656    8.5522218033 
H   -0.9000000000    4.8944999885    8.4140229293 
H    0.9000000000    4.8944999885    8.4140229293 
C    0.0000000000    4.4244999886   10.1768101563 
N    0.0000000000    4.4244999886    8.7861901413 
Pb    0.0000000000    0.0000000000    0.0000000000 
Pb    0.0000000000    0.0000000000    6.3210000990 
Pb    4.4244999890    4.4244999890    6.3210000990 
Pb    4.4244999890    4.4244999890    0.0000000000 
I    0.0000000000    0.0000000000    3.1251024150 
I    0.0000000000    0.0000000000    9.4461027030 
I    4.4244999890    4.4244999890    9.4461027030 
I    4.4244999890    4.4244999890    3.1251024150 
I    1.8951902720    6.3196901290    0.0581532020 
I    6.9538098370    2.5293098480    0.0581532020 
I    2.5293098480    1.8951902720    0.0581532020 
I    6.3196901290    6.9538098370    0.0581532020 
I    1.8951902720    2.5293098480    6.3791531540 
I    6.9538098370    6.3196901290    6.3791531540 
I    2.5293098480    6.9538098370    6.3791531540 
I    6.3196901290    1.8951902720    6.3791531540 
H   13.2734999657    7.7889999771    4.0897784101 
H   12.3734999656    0.4700000000    4.2279772841 
H   14.1734999657    0.4700000000    4.2279772841 
H   13.2734999657    7.7889999771    2.2312217041 
H   12.3734999656    0.4700000000    2.0930228301 
H   14.1734999657    0.4700000000    2.0930228301 
C   13.2734999657    0.0000000000    3.8558100571 
N   13.2734999657    0.0000000000    2.4651900421 
H    8.8489999771   12.2134999656    4.0897784101 
H    7.9489999771    4.8944999885    4.2279772841 
H    9.7489999771    4.8944999885    4.2279772841 
H    8.8489999771   12.2134999656    2.2312217041 
H    7.9489999771    4.8944999885    2.0930228301 
H    9.7489999771    4.8944999885    2.0930228301 
C    8.8489999771    4.4244999886    3.8558100571 
N    8.8489999771    4.4244999886    2.4651900421 
H   13.2734999657    7.7889999771   10.4107785093 
H   12.3734999656    0.4700000000   10.5489773833 
H   14.1734999657    0.4700000000   10.5489773833 
H   13.2734999657    7.7889999771    8.5522218033 
H   12.3734999656    0.4700000000    8.4140229293 
H   14.1734999657    0.4700000000    8.4140229293 
C   13.2734999657    0.0000000000   10.1768101563 
N   13.2734999657    0.0000000000    8.7861901413 
H    8.8489999771   12.2134999656   10.4107785093 
H    7.9489999771    4.8944999885   10.5489773833 
H    9.7489999771    4.8944999885   10.5489773833 
H    8.8489999771   12.2134999656    8.5522218033 
H    7.9489999771    4.8944999885    8.4140229293 
H    9.7489999771    4.8944999885    8.4140229293 
C    8.8489999771    4.4244999886   10.1768101563 
N    8.8489999771    4.4244999886    8.7861901413 
Pb    8.8489999771    0.0000000000    0.0000000000 
Pb    8.8489999771    0.0000000000    6.3210000990 
Pb   13.2734999661    4.4244999890    6.3210000990 
Pb   13.2734999661    4.4244999890    0.0000000000 
I    8.8489999771    0.0000000000    3.1251024150 
I    8.8489999771    0.0000000000    9.4461027030 
I   13.2734999661    4.4244999890    9.4461027030 
I   13.2734999661    4.4244999890    3.1251024150 
I   10.7441902491    6.3196901290    0.0581532020 
I   15.8028098141    2.5293098480    0.0581532020 
I   11.3783098251    1.8951902720    0.0581532020 
I   15.1686901061    6.9538098370    0.0581532020 
I   10.7441902491    2.5293098480    6.3791531540 
I   15.8028098141    6.3196901290    6.3791531540 
I   11.3783098251    6.9538098370    6.3791531540 
I   15.1686901061    1.8951902720    6.3791531540 
